Version 4
SHEET 1 2084 600
WIRE -1472 -448 -1472 -480
WIRE -1360 -448 -1360 -480
WIRE -736 -448 -736 -480
WIRE -624 -448 -624 -480
WIRE 16 -448 16 -480
WIRE 128 -448 128 -480
WIRE 752 -448 752 -480
WIRE 864 -448 864 -480
WIRE -1472 -336 -1472 -368
WIRE -1360 -336 -1360 -368
WIRE -736 -336 -736 -368
WIRE -624 -336 -624 -368
WIRE 16 -336 16 -368
WIRE 128 -336 128 -368
WIRE 752 -336 752 -368
WIRE 864 -336 864 -368
WIRE -1952 -288 -1984 -288
WIRE -1840 -288 -1872 -288
WIRE -1744 -288 -1840 -288
WIRE -1568 -288 -1664 -288
WIRE -1280 -288 -1328 -288
WIRE -1136 -288 -1200 -288
WIRE -1040 -288 -1136 -288
WIRE -864 -288 -960 -288
WIRE -544 -288 -592 -288
WIRE -400 -288 -464 -288
WIRE -304 -288 -400 -288
WIRE -128 -288 -224 -288
WIRE 176 -288 144 -288
WIRE 352 -288 256 -288
WIRE 464 -288 352 -288
WIRE 624 -288 544 -288
WIRE 912 -288 880 -288
WIRE 1088 -288 992 -288
WIRE 1200 -288 1088 -288
WIRE 1360 -288 1280 -288
WIRE 144 -256 144 -288
WIRE 880 -256 880 -288
WIRE -1328 -240 -1328 -288
WIRE -592 -240 -592 -288
WIRE -1984 -224 -1984 -288
WIRE -2176 -176 -2176 -208
WIRE -2080 -176 -2080 -208
WIRE -1760 -96 -1760 -192
WIRE -2176 -64 -2176 -96
WIRE -2080 -64 -2080 -96
WIRE -1760 -48 -1760 -96
WIRE -1056 -48 -1056 -192
WIRE -320 -48 -320 -192
WIRE 432 -48 432 -192
WIRE 1168 -48 1168 -192
WIRE -1840 -32 -1840 -288
WIRE -1792 -32 -1792 -48
WIRE -1792 -32 -1840 -32
WIRE -1776 -32 -1792 -32
WIRE -1136 -32 -1136 -288
WIRE -1088 -32 -1088 -48
WIRE -1088 -32 -1136 -32
WIRE -1072 -32 -1088 -32
WIRE -400 -32 -400 -288
WIRE -352 -32 -352 -48
WIRE -352 -32 -400 -32
WIRE -336 -32 -352 -32
WIRE 352 -32 352 -288
WIRE 400 -32 400 -48
WIRE 400 -32 352 -32
WIRE 416 -32 400 -32
WIRE 1088 -32 1088 -288
WIRE 1136 -32 1136 -48
WIRE 1136 -32 1088 -32
WIRE 1152 -32 1136 -32
WIRE -1648 -16 -1728 -16
WIRE -1568 -16 -1568 -288
WIRE -1568 -16 -1648 -16
WIRE -864 -16 -864 -288
WIRE -864 -16 -1024 -16
WIRE -128 -16 -128 -288
WIRE -128 -16 -288 -16
WIRE 624 -16 624 -288
WIRE 624 -16 464 -16
WIRE 1360 -16 1360 -288
WIRE 1360 -16 1200 -16
WIRE -2224 0 -2288 0
WIRE -2080 0 -2144 0
WIRE -1792 0 -2080 0
WIRE -1776 0 -1792 0
WIRE -1568 0 -1568 -16
WIRE -1504 0 -1568 0
WIRE -1392 0 -1440 0
WIRE -1344 0 -1392 0
WIRE -1184 0 -1280 0
WIRE -1088 0 -1184 0
WIRE -1072 0 -1088 0
WIRE -864 0 -864 -16
WIRE -768 0 -864 0
WIRE -656 0 -704 0
WIRE -608 0 -656 0
WIRE -448 0 -544 0
WIRE -352 0 -448 0
WIRE -336 0 -352 0
WIRE -128 0 -128 -16
WIRE -16 0 -128 0
WIRE 96 0 64 0
WIRE 128 0 96 0
WIRE 256 0 208 0
WIRE 400 0 256 0
WIRE 416 0 400 0
WIRE 624 0 624 -16
WIRE 720 0 624 0
WIRE 832 0 800 0
WIRE 864 0 832 0
WIRE 992 0 944 0
WIRE 1136 0 992 0
WIRE 1152 0 1136 0
WIRE 1360 0 1360 -16
WIRE 1488 0 1360 0
WIRE 1520 0 1488 0
WIRE -1792 16 -1792 0
WIRE -1088 16 -1088 0
WIRE -352 16 -352 0
WIRE 400 16 400 0
WIRE 1136 16 1136 0
WIRE -1184 32 -1184 0
WIRE -448 32 -448 0
WIRE 256 32 256 0
WIRE 992 32 992 0
WIRE -1760 64 -1760 16
WIRE -2288 80 -2288 0
WIRE -2080 96 -2080 0
WIRE 256 112 256 96
WIRE 992 112 992 96
WIRE -1184 128 -1184 112
WIRE -448 128 -448 112
WIRE -1760 176 -1760 64
WIRE -1056 176 -1056 16
WIRE -320 176 -320 16
WIRE 432 176 432 16
WIRE 1168 176 1168 16
WIRE -2288 224 -2288 160
WIRE -2080 224 -2080 160
WIRE -2080 224 -2288 224
WIRE -2288 240 -2288 224
WIRE -1392 240 -1392 0
WIRE -1200 240 -1392 240
WIRE -864 240 -864 0
WIRE -864 240 -1120 240
WIRE -656 240 -656 0
WIRE -464 240 -656 240
WIRE -128 240 -128 0
WIRE -128 240 -384 240
WIRE 96 240 96 0
WIRE 288 240 96 240
WIRE 624 240 624 0
WIRE 624 240 352 240
WIRE 832 240 832 0
WIRE 1024 240 832 240
WIRE 1360 240 1360 0
WIRE 1360 240 1088 240
FLAG -2288 240 0
FLAG -1760 -192 Vp-1
FLAG -1760 176 Vn-1
FLAG -1984 -224 0
FLAG -2176 -64 0
FLAG -2080 -64 0
FLAG -2176 -208 Vp-1
FLAG -2080 -208 Vn-1
FLAG -1056 -192 Vp-2A
FLAG -1056 176 Vn-2A
FLAG -1184 128 0
FLAG -1472 -336 0
FLAG -1360 -336 0
FLAG -1472 -480 Vp-2A
FLAG -1360 -480 Vn-2A
FLAG -1328 -240 0
FLAG -320 -192 Vp-3A
FLAG -320 176 Vn-3A
FLAG -448 128 0
FLAG -736 -336 0
FLAG -624 -336 0
FLAG -736 -480 Vp-3A
FLAG -624 -480 Vn-3A
FLAG -592 -240 0
FLAG 432 -192 Vp-4A
FLAG 432 176 Vn-4A
FLAG 256 112 0
FLAG 16 -336 0
FLAG 128 -336 0
FLAG 16 -480 Vp-4A
FLAG 128 -480 Vn-4A
FLAG 144 -256 0
FLAG 1168 -192 Vp-5A
FLAG 1168 176 Vn-5A
FLAG 1488 0 out
FLAG 992 112 0
FLAG 752 -336 0
FLAG 864 -336 0
FLAG 752 -480 Vp-5A
FLAG 864 -480 Vn-5A
FLAG 880 -256 0
SYMBOL voltage -2288 64 R0
WINDOW 123 33 67 Left 2
WINDOW 39 0 0 Left 0
WINDOW 0 32 17 Left 2
WINDOW 3 34 43 Left 2
SYMATTR Value2 AC 1
SYMATTR InstName Vsensor
SYMATTR Value SINE(0 1 100)
SYMBOL res -2128 -16 R90
WINDOW 0 0 56 VBottom 2
WINDOW 3 32 56 VTop 2
SYMATTR InstName R1
SYMATTR Value 10
SYMBOL cap -2096 96 R0
SYMATTR InstName C1
SYMATTR Value 100µ
SYMBOL Opamps\\LT1783 -1760 -16 R0
SYMATTR InstName U1-1
SYMBOL res -1856 -304 R90
WINDOW 0 0 56 VBottom 2
WINDOW 3 32 56 VTop 2
SYMATTR InstName R1-1
SYMATTR Value 10
SYMBOL res -1648 -304 R90
WINDOW 0 0 56 VBottom 2
WINDOW 3 32 56 VTop 2
SYMATTR InstName R2-1
SYMATTR Value 10k
SYMBOL voltage -2176 -192 R0
WINDOW 123 0 0 Left 0
WINDOW 39 0 0 Left 0
SYMATTR InstName VDD-1
SYMATTR Value 5
SYMBOL voltage -2080 -192 R0
WINDOW 123 0 0 Left 0
WINDOW 39 0 0 Left 0
SYMATTR InstName VSS-1
SYMATTR Value -5
SYMBOL res -1168 128 R180
WINDOW 0 36 76 Left 2
WINDOW 3 36 40 Left 2
SYMATTR InstName R2-2A
SYMATTR Value 95.3k
SYMBOL res -1104 224 R90
WINDOW 0 0 56 VBottom 2
WINDOW 3 32 56 VTop 2
SYMATTR InstName R1-2A
SYMATTR Value 340k
SYMBOL cap -1280 -16 R90
WINDOW 0 0 32 VBottom 2
WINDOW 3 32 32 VTop 2
SYMATTR InstName C2-2A
SYMATTR Value 8.2µ
SYMBOL cap -1440 -16 R90
WINDOW 0 0 32 VBottom 2
WINDOW 3 32 32 VTop 2
SYMATTR InstName C1-2A
SYMATTR Value 8.2µ
SYMBOL Opamps\\AD8676 -1056 -80 R0
SYMATTR InstName U1-2A
SYMBOL voltage -1472 -464 R0
WINDOW 123 0 0 Left 0
WINDOW 39 0 0 Left 0
SYMATTR InstName VDD-2A
SYMATTR Value {Vpos}
SYMBOL voltage -1360 -464 R0
WINDOW 123 0 0 Left 0
WINDOW 39 0 0 Left 0
SYMATTR InstName VSS-2A
SYMATTR Value {Vneg}
SYMBOL res -1184 -304 R90
WINDOW 0 0 56 VBottom 2
WINDOW 3 32 56 VTop 2
SYMATTR InstName R3-2A
SYMATTR Value 2.32k
SYMBOL res -944 -304 R90
WINDOW 0 0 56 VBottom 2
WINDOW 3 32 56 VTop 2
SYMATTR InstName R4-2A
SYMATTR Value 10.7k
SYMBOL res -432 128 R180
WINDOW 0 36 76 Left 2
WINDOW 3 36 40 Left 2
SYMATTR InstName R2-3A
SYMATTR Value 95.3k
SYMBOL res -368 224 R90
WINDOW 0 0 56 VBottom 2
WINDOW 3 32 56 VTop 2
SYMATTR InstName R1-3A
SYMATTR Value 340k
SYMBOL cap -544 -16 R90
WINDOW 0 0 32 VBottom 2
WINDOW 3 32 32 VTop 2
SYMATTR InstName C2-3A
SYMATTR Value 8.2µ
SYMBOL cap -704 -16 R90
WINDOW 0 0 32 VBottom 2
WINDOW 3 32 32 VTop 2
SYMATTR InstName C1-3A
SYMATTR Value 8.2µ
SYMBOL Opamps\\AD8676 -320 -80 R0
SYMATTR InstName U1-3A
SYMBOL voltage -736 -464 R0
WINDOW 123 0 0 Left 0
WINDOW 39 0 0 Left 0
SYMATTR InstName VDD-3A
SYMATTR Value {Vpos}
SYMBOL voltage -624 -464 R0
WINDOW 123 0 0 Left 0
WINDOW 39 0 0 Left 0
SYMATTR InstName VSS-3A
SYMATTR Value {Vneg}
SYMBOL res -448 -304 R90
WINDOW 0 0 56 VBottom 2
WINDOW 3 32 56 VTop 2
SYMATTR InstName R3-3A
SYMATTR Value 2.32k
SYMBOL res -208 -304 R90
WINDOW 0 0 56 VBottom 2
WINDOW 3 32 56 VTop 2
SYMATTR InstName R4-3A
SYMATTR Value 10.7k
SYMBOL res 224 -16 R90
WINDOW 0 0 56 VBottom 2
WINDOW 3 32 56 VTop 2
SYMATTR InstName R2-4A
SYMATTR Value 475k
SYMBOL res 80 -16 R90
WINDOW 0 0 56 VBottom 2
WINDOW 3 32 56 VTop 2
SYMATTR InstName R1-4A
SYMATTR Value 69.8k
SYMBOL cap 240 32 R0
SYMATTR InstName C2-4A
SYMATTR Value 100n
SYMBOL cap 352 224 R90
WINDOW 0 0 32 VBottom 2
WINDOW 3 32 32 VTop 2
SYMATTR InstName C1-4A
SYMATTR Value 100n
SYMBOL Opamps\\AD8676 432 -80 R0
SYMATTR InstName U1-4A
SYMBOL voltage 16 -464 R0
WINDOW 123 0 0 Left 0
WINDOW 39 0 0 Left 0
SYMATTR InstName VDD-4A
SYMATTR Value {Vpos}
SYMBOL voltage 128 -464 R0
WINDOW 123 0 0 Left 0
WINDOW 39 0 0 Left 0
SYMATTR InstName VSS-4A
SYMATTR Value {Vneg}
SYMBOL res 272 -304 R90
WINDOW 0 0 56 VBottom 2
WINDOW 3 32 56 VTop 2
SYMATTR InstName R3-4A
SYMATTR Value 442
SYMBOL res 560 -304 R90
WINDOW 0 0 56 VBottom 2
WINDOW 3 32 56 VTop 2
SYMATTR InstName R4-4A
SYMATTR Value 2.05k
SYMBOL res 960 -16 R90
WINDOW 0 0 56 VBottom 2
WINDOW 3 32 56 VTop 2
SYMATTR InstName R2-5A
SYMATTR Value 475k
SYMBOL res 816 -16 R90
WINDOW 0 0 56 VBottom 2
WINDOW 3 32 56 VTop 2
SYMATTR InstName R1-5A
SYMATTR Value 69.8k
SYMBOL cap 976 32 R0
SYMATTR InstName C2-5A
SYMATTR Value 100n
SYMBOL cap 1088 224 R90
WINDOW 0 0 32 VBottom 2
WINDOW 3 32 32 VTop 2
SYMATTR InstName C1-5A
SYMATTR Value 100n
SYMBOL Opamps\\AD8676 1168 -80 R0
SYMATTR InstName U1-5A
SYMBOL voltage 752 -464 R0
WINDOW 123 0 0 Left 0
WINDOW 39 0 0 Left 0
SYMATTR InstName VDD-5A
SYMATTR Value {Vpos}
SYMBOL voltage 864 -464 R0
WINDOW 123 0 0 Left 0
WINDOW 39 0 0 Left 0
SYMATTR InstName VSS-5A
SYMATTR Value {Vneg}
SYMBOL res 1008 -304 R90
WINDOW 0 0 56 VBottom 2
WINDOW 3 32 56 VTop 2
SYMATTR InstName R3-5A
SYMATTR Value 442
SYMBOL res 1296 -304 R90
WINDOW 0 0 56 VBottom 2
WINDOW 3 32 56 VTop 2
SYMATTR InstName R4-5A
SYMATTR Value 2.05k
TEXT -1120 -872 Left 2 !.ac oct 100 10m 100
TEXT -2288 -856 Left 2 ;Noise Simulation Export from Analog Devices Noise Tool \nOn-Line Export\n \nSome changes had been made:\nAll Powersupplies are +/-5V. The noise tool exports the powersupply with the part specification\ndata only.\nBandwidth to 1GHz does not make sense and got changed to 100Hz, starting at 10mHz
TEXT -1120 -784 Left 2 !.param Vpos 5\n.param Vneg -5
