Version 4
SHEET 1 100 600
WIRE -2688 0 -2752 0
WIRE -2544 0 -2608 0
WIRE -2304 0 -2544 0
WIRE -2752 80 -2752 0
WIRE -2544 96 -2544 0
WIRE -2752 224 -2752 160
WIRE -2544 224 -2544 160
WIRE -2544 224 -2752 224
WIRE -2752 240 -2752 224
FLAG -2752 240 0
SYMBOL voltage -2752 64 R0
WINDOW 123 33 67 Left 2
WINDOW 39 0 0 Left 0
WINDOW 0 32 17 Left 2
WINDOW 3 34 43 Left 2
SYMATTR Value2 AC 1
SYMATTR InstName Vsensor
SYMATTR Value SINE(0 1 1k)
SYMBOL res -2592 -16 R90
WINDOW 0 0 56 VBottom 2
WINDOW 3 32 56 VTop 2
SYMATTR InstName R1
SYMATTR Value 1k
SYMBOL cap -2560 96 R0
SYMATTR InstName C1
SYMATTR Value 100p
TEXT -2760 368 Left 2 !.ac dec 100 100m 1G
TEXT -2740 496 Left 2 ;
WIRE -1952 -288 -1984 -288
WIRE -1840 -288 -1872 -288
WIRE -1744 -288 -1840 -288
WIRE -1568 -288 -1664 -288
WIRE -1984 -224 -1984 -288
WIRE -2176 -176 -2176 -208
WIRE -2080 -176 -2080 -208
WIRE -2176 -64 -2176 -96
WIRE -2080 -64 -2080 -96
WIRE -1760 -48 -1760 -192
WIRE -1840 -32 -1840 -288
WIRE -1792 -32 -1792 -48
WIRE -1792 -32 -1840 -32
WIRE -1776 -32 -1792 -32
WIRE -1568 -16 -1568 -288
WIRE -1568 -16 -1728 -16
WIRE -1792 0 -2304 0
WIRE -1776 0 -1792 0
WIRE -1568 0 -1568 -16
WIRE -1472 0 -1568 0
WIRE -1792 16 -1792 0
WIRE -1760 176 -1760 16
FLAG -1760 -192 Vp-1
FLAG -1760 176 Vn-1
FLAG -1984 -224 0
FLAG -2176 -64 0
FLAG -2080 -64 0
FLAG -2176 -208 Vp-1
FLAG -2080 -208 Vn-1
SYMBOL Opamps\\LT1782 -1760 -16 R0
SYMATTR InstName U1-1
SYMBOL res -1856 -304 R90
WINDOW 0 0 56 VBottom 2
WINDOW 3 32 56 VTop 2
SYMATTR InstName R1-1
SYMATTR Value 102
SYMBOL res -1648 -304 R90
WINDOW 0 0 56 VBottom 2
WINDOW 3 32 56 VTop 2
SYMATTR InstName R2-1
SYMATTR Value 10k
SYMBOL voltage -2176 -192 R0
WINDOW 123 0 0 Left 0
WINDOW 39 0 0 Left 0
SYMATTR InstName VDD-1
SYMATTR Value 5
SYMBOL voltage -2080 -192 R0
WINDOW 123 0 0 Left 0
WINDOW 39 0 0 Left 0
SYMATTR InstName VSS-1
SYMATTR Value -5
WIRE -1376 -448 -1376 -480
WIRE -1264 -448 -1264 -480
WIRE -1376 -336 -1376 -368
WIRE -1264 -336 -1264 -368
WIRE -1184 -288 -1232 -288
WIRE -1040 -288 -1104 -288
WIRE -944 -288 -1040 -288
WIRE -768 -288 -864 -288
WIRE -1232 -240 -1232 -288
WIRE -960 -48 -960 -192
WIRE -1040 -32 -1040 -288
WIRE -992 -32 -992 -48
WIRE -992 -32 -1040 -32
WIRE -976 -32 -992 -32
WIRE -768 -16 -768 -288
WIRE -768 -16 -928 -16
WIRE -1408 0 -1472 0
WIRE -1296 0 -1344 0
WIRE -1248 0 -1296 0
WIRE -1088 0 -1184 0
WIRE -992 0 -1088 0
WIRE -976 0 -992 0
WIRE -768 0 -768 -16
WIRE -640 0 -768 0
WIRE -608 0 -640 0
WIRE -992 16 -992 0
WIRE -1088 32 -1088 0
WIRE -1088 128 -1088 112
WIRE -960 176 -960 16
WIRE -1296 240 -1296 0
WIRE -1104 240 -1296 240
WIRE -768 240 -768 0
WIRE -768 240 -1024 240
FLAG -960 -192 Vp-2A
FLAG -960 176 Vn-2A
FLAG -1088 128 0
FLAG -1376 -336 0
FLAG -1264 -336 0
FLAG -1376 -480 Vp-2A
FLAG -1264 -480 Vn-2A
FLAG -1232 -240 0
SYMBOL res -1072 128 R180
WINDOW 0 36 76 Left 2
WINDOW 3 36 40 Left 2
SYMATTR InstName R2-2A
SYMATTR Value 75k
SYMBOL res -1008 224 R90
WINDOW 0 0 56 VBottom 2
WINDOW 3 32 56 VTop 2
SYMATTR InstName R1-2A
SYMATTR Value 261k
SYMBOL cap -1184 -16 R90
WINDOW 0 0 32 VBottom 2
WINDOW 3 32 32 VTop 2
SYMATTR InstName C2-2A
SYMATTR Value 10u
SYMBOL cap -1344 -16 R90
WINDOW 0 0 32 VBottom 2
WINDOW 3 32 32 VTop 2
SYMATTR InstName C1-2A
SYMATTR Value 10u
SYMBOL Opamps\\ADA4510 -960 -80 R0
SYMATTR InstName U1-2A
SYMBOL voltage -1376 -464 R0
WINDOW 123 0 0 Left 0
WINDOW 39 0 0 Left 0
SYMATTR InstName VDD-2A
SYMATTR Value 5
SYMBOL voltage -1264 -464 R0
WINDOW 123 0 0 Left 0
WINDOW 39 0 0 Left 0
SYMATTR InstName VSS-2A
SYMATTR Value -5
SYMBOL res -1088 -304 R90
WINDOW 0 0 56 VBottom 2
WINDOW 3 32 56 VTop 2
SYMATTR InstName R3-2A
SYMATTR Value 1.74k
SYMBOL res -848 -304 R90
WINDOW 0 0 56 VBottom 2
WINDOW 3 32 56 VTop 2
SYMATTR InstName R4-2A
SYMATTR Value 8.06k
WIRE -544 -448 -544 -480
WIRE -432 -448 -432 -480
WIRE -544 -336 -544 -368
WIRE -432 -336 -432 -368
WIRE -352 -288 -400 -288
WIRE -208 -288 -272 -288
WIRE -112 -288 -208 -288
WIRE 64 -288 -32 -288
WIRE -400 -240 -400 -288
WIRE -128 -48 -128 -192
WIRE -208 -32 -208 -288
WIRE -160 -32 -160 -48
WIRE -160 -32 -208 -32
WIRE -144 -32 -160 -32
WIRE 64 -16 64 -288
WIRE 64 -16 -96 -16
WIRE -576 0 -640 0
WIRE -464 0 -512 0
WIRE -416 0 -464 0
WIRE -256 0 -352 0
WIRE -160 0 -256 0
WIRE -144 0 -160 0
WIRE 64 0 64 -16
WIRE 192 0 64 0
WIRE 224 0 192 0
WIRE -160 16 -160 0
WIRE -256 32 -256 0
WIRE -256 128 -256 112
WIRE -128 176 -128 16
WIRE -464 240 -464 0
WIRE -272 240 -464 240
WIRE 64 240 64 0
WIRE 64 240 -192 240
FLAG -128 -192 Vp-3A
FLAG -128 176 Vn-3A
FLAG -256 128 0
FLAG -544 -336 0
FLAG -432 -336 0
FLAG -544 -480 Vp-3A
FLAG -432 -480 Vn-3A
FLAG -400 -240 0
SYMBOL res -240 128 R180
WINDOW 0 36 76 Left 2
WINDOW 3 36 40 Left 2
SYMATTR InstName R2-3A
SYMATTR Value 75k
SYMBOL res -176 224 R90
WINDOW 0 0 56 VBottom 2
WINDOW 3 32 56 VTop 2
SYMATTR InstName R1-3A
SYMATTR Value 261k
SYMBOL cap -352 -16 R90
WINDOW 0 0 32 VBottom 2
WINDOW 3 32 32 VTop 2
SYMATTR InstName C2-3A
SYMATTR Value 10u
SYMBOL cap -512 -16 R90
WINDOW 0 0 32 VBottom 2
WINDOW 3 32 32 VTop 2
SYMATTR InstName C1-3A
SYMATTR Value 10u
SYMBOL Opamps\\ADA4510 -128 -80 R0
SYMATTR InstName U1-3A
SYMBOL voltage -544 -464 R0
WINDOW 123 0 0 Left 0
WINDOW 39 0 0 Left 0
SYMATTR InstName VDD-3A
SYMATTR Value 5
SYMBOL voltage -432 -464 R0
WINDOW 123 0 0 Left 0
WINDOW 39 0 0 Left 0
SYMATTR InstName VSS-3A
SYMATTR Value -5
SYMBOL res -256 -304 R90
WINDOW 0 0 56 VBottom 2
WINDOW 3 32 56 VTop 2
SYMATTR InstName R3-3A
SYMATTR Value 1.74k
SYMBOL res -16 -304 R90
WINDOW 0 0 56 VBottom 2
WINDOW 3 32 56 VTop 2
SYMATTR InstName R4-3A
SYMATTR Value 8.06k
WIRE 336 -480 336 -512
WIRE 448 -480 448 -512
WIRE 336 -368 336 -400
WIRE 448 -368 448 -400
WIRE 736 -256 544 -256
WIRE 1008 -256 736 -256
WIRE 544 -160 544 -256
WIRE 736 -160 736 -256
WIRE 816 -16 816 -160
WIRE 192 0 176 0
WIRE 352 0 192 0
WIRE 544 0 544 -80
WIRE 544 0 432 0
WIRE 608 0 544 0
WIRE 736 0 736 -96
WIRE 736 0 688 0
WIRE 784 0 784 -16
WIRE 784 0 736 0
WIRE 800 0 784 0
WIRE 1008 16 1008 -256
WIRE 1008 16 848 16
WIRE 784 32 704 32
WIRE 800 32 784 32
WIRE 1008 32 1008 16
WIRE 1136 32 1008 32
WIRE 1168 32 1136 32
WIRE 544 48 544 0
WIRE 784 48 784 32
WIRE 704 80 704 32
WIRE 544 160 544 112
WIRE 816 208 816 48
FLAG 816 -160 Vp-4A
FLAG 816 208 Vn-4A
FLAG 336 -368 0
FLAG 448 -368 0
FLAG 336 -512 Vp-4A
FLAG 448 -512 Vn-4A
FLAG 544 160 0
FLAG 704 80 0
SYMBOL Opamps\\ADA4510 816 -48 R0
SYMATTR InstName U1-4A
SYMBOL voltage 336 -496 R0
WINDOW 123 0 0 Left 0
WINDOW 39 0 0 Left 0
SYMATTR InstName VDD-4A
SYMATTR Value 5
SYMBOL voltage 448 -496 R0
WINDOW 123 0 0 Left 0
WINDOW 39 0 0 Left 0
SYMATTR InstName VSS-4A
SYMATTR Value -5
SYMBOL res 336 16 R270
WINDOW 0 32 56 VTop 2
WINDOW 3 0 56 VBottom 2
SYMATTR InstName R1-4A
SYMATTR Value 14.7k
SYMBOL res 704 -16 R90
WINDOW 0 0 56 VBottom 2
WINDOW 3 32 56 VTop 2
SYMATTR InstName R2-4A
SYMATTR Value 12.4k
SYMBOL cap 560 112 R180
WINDOW 0 24 56 Left 2
WINDOW 3 24 8 Left 2
SYMATTR InstName C1-4A
SYMATTR Value 2.4u
SYMBOL cap 752 -96 R180
WINDOW 0 24 56 Left 2
WINDOW 3 24 8 Left 2
SYMATTR InstName C2-4A
SYMATTR Value 130n
SYMBOL res 528 -176 R0
SYMATTR InstName R5-4A
SYMATTR Value 82.5k
WIRE 1280 -448 1280 -480
WIRE 1392 -448 1392 -480
WIRE 1280 -336 1280 -368
WIRE 1392 -336 1392 -368
WIRE 1680 -224 1488 -224
WIRE 1952 -224 1680 -224
WIRE 1488 -128 1488 -224
WIRE 1680 -128 1680 -224
WIRE 1760 16 1760 -128
WIRE 1136 32 1120 32
WIRE 1296 32 1136 32
WIRE 1488 32 1488 -48
WIRE 1488 32 1376 32
WIRE 1552 32 1488 32
WIRE 1680 32 1680 -64
WIRE 1680 32 1632 32
WIRE 1728 32 1728 16
WIRE 1728 32 1680 32
WIRE 1744 32 1728 32
WIRE 1952 48 1952 -224
WIRE 1952 48 1792 48
WIRE 1728 64 1648 64
WIRE 1744 64 1728 64
WIRE 1952 64 1952 48
WIRE 2080 64 1952 64
WIRE 2112 64 2080 64
WIRE 1488 80 1488 32
WIRE 1728 80 1728 64
WIRE 1648 112 1648 64
WIRE 1488 192 1488 144
WIRE 1760 240 1760 80
FLAG 1760 -128 Vp-5A
FLAG 1760 240 Vn-5A
FLAG 2080 64 out
FLAG 1280 -336 0
FLAG 1392 -336 0
FLAG 1280 -480 Vp-5A
FLAG 1392 -480 Vn-5A
FLAG 1488 192 0
FLAG 1648 112 0
SYMBOL Opamps\\ADA4510 1760 -16 R0
SYMATTR InstName U1-5A
SYMBOL voltage 1280 -464 R0
WINDOW 123 0 0 Left 0
WINDOW 39 0 0 Left 0
SYMATTR InstName VDD-5A
SYMATTR Value 5
SYMBOL voltage 1392 -464 R0
WINDOW 123 0 0 Left 0
WINDOW 39 0 0 Left 0
SYMATTR InstName VSS-5A
SYMATTR Value -5
SYMBOL res 1280 48 R270
WINDOW 0 32 56 VTop 2
WINDOW 3 0 56 VBottom 2
SYMATTR InstName R1-5A
SYMATTR Value 14.7k
SYMBOL res 1648 16 R90
WINDOW 0 0 56 VBottom 2
WINDOW 3 32 56 VTop 2
SYMATTR InstName R2-5A
SYMATTR Value 12.4k
SYMBOL cap 1504 144 R180
WINDOW 0 24 56 Left 2
WINDOW 3 24 8 Left 2
SYMATTR InstName C1-5A
SYMATTR Value 2.4u
SYMBOL cap 1696 -64 R180
WINDOW 0 24 56 Left 2
WINDOW 3 24 8 Left 2
SYMATTR InstName C2-5A
SYMATTR Value 130n
SYMBOL res 1472 -144 R0
SYMATTR InstName R5-5A
SYMATTR Value 82.5k
